420
 generated by VMD
Au	-3.058742	-5.097842	-9.176143	
Au	-1.019542	-7.137042	-9.176143	
Au	1.019559	-5.097842	-9.176143	
Au	5.097859	-5.097842	-9.176143	
Au	-7.137042	-1.019542	-9.176143	
Au	-5.097842	-3.058742	-9.176143	
Au	-3.058742	-1.019542	-9.176143	
Au	-1.019542	-3.058742	-9.176143	
Au	-1.019542	-1.019542	-11.215342	
Au	1.019559	-3.058742	-11.215342	
Au	1.019559	-1.019542	-9.176143	
Au	3.058759	-3.058742	-9.176143	
Au	3.058759	-1.019542	-11.215342	
Au	5.097859	-1.019542	-9.176143	
Au	-5.097842	1.019559	-9.176143	
Au	-3.058742	1.019559	-11.215342	
Au	-3.058742	3.058759	-9.176143	
Au	-1.019542	1.019559	-9.176143	
Au	-1.019542	3.058759	-11.215342	
Au	1.019559	1.019559	-11.215342	
Au	1.019559	3.058759	-9.176143	
Au	3.058759	1.019559	-9.176143	
Au	5.097859	3.058759	-9.176143	
Au	7.136956	1.019559	-9.176143	
Au	-5.097842	5.097859	-9.176143	
Au	-1.019542	5.097859	-9.176143	
Au	1.019559	7.136956	-9.176143	
Au	3.058759	5.097859	-9.176143	
Au	-3.058742	-9.176143	-5.097842	
Au	-1.019542	-9.176143	-7.137042	
Au	1.019559	-9.176143	-5.097842	
Au	5.097859	-9.176143	-5.097842	
Au	-7.137042	-5.097842	-5.097842	
Au	-5.097842	-7.137042	-5.097842	
Au	-5.097842	-5.097842	-7.137042	
Au	-3.058742	-7.137042	-7.137042	
Au	-3.058742	-5.097842	-5.097842	
Au	-1.019542	-7.137042	-5.097842	
Au	-1.019542	-5.097842	-7.137042	
Au	1.019559	-7.137042	-7.137042	
Au	1.019559	-5.097842	-5.097842	
Au	3.058759	-7.137042	-5.097842	
Au	3.058759	-5.097842	-7.137042	
Au	5.097859	-7.137042	-7.137042	
Au	5.097859	-5.097842	-5.097842	
Au	7.136956	-7.137042	-5.097842	
Au	7.136956	-5.097842	-7.137042	
Au	9.176160	-5.097842	-5.097842	
Au	-9.176143	-3.058742	-5.097842	
Au	-9.176143	-1.019542	-7.137042	
Au	-7.137042	-3.058742	-7.137042	
Au	-7.137042	-1.019542	-5.097842	
Au	-5.097842	-3.058742	-5.097842	
Au	-5.097842	-1.019542	-7.137042	
Au	-3.058742	-3.058742	-7.137042	
Au	-3.058742	-1.019542	-5.097842	
Au	-1.019542	-3.058742	-5.097842	
Au	-1.019542	-1.019542	-7.137042	
Au	1.019559	-3.058742	-7.137042	
Au	1.019559	-1.019542	-5.097842	
Au	3.058759	-3.058742	-5.097842	
Au	3.058759	-1.019542	-7.137042	
Au	5.097859	-3.058742	-7.137042	
Au	5.097859	-1.019542	-5.097842	
Au	7.136956	-3.058742	-5.097842	
Au	7.136956	-1.019542	-7.137042	
Au	9.176160	-1.019542	-5.097842	
Au	-9.176143	1.019559	-5.097842	
Au	-7.137042	1.019559	-7.137042	
Au	-7.137042	3.058759	-5.097842	
Au	-5.097842	1.019559	-5.097842	
Au	-5.097842	3.058759	-7.137042	
Au	-3.058742	1.019559	-7.137042	
Au	-3.058742	3.058759	-5.097842	
Au	-1.019542	1.019559	-5.097842	
Au	-1.019542	3.058759	-7.137042	
Au	1.019559	1.019559	-7.137042	
Au	1.019559	3.058759	-5.097842	
Au	3.058759	1.019559	-5.097842	
Au	3.058759	3.058759	-7.137042	
Au	5.097859	1.019559	-7.137042	
Au	5.097859	3.058759	-5.097842	
Au	7.136956	1.019559	-5.097842	
Au	7.136956	3.058759	-7.137042	
Au	9.176160	1.019559	-7.137042	
Au	9.176160	3.058759	-5.097842	
Au	-9.176143	5.097859	-5.097842	
Au	-7.137042	5.097859	-7.137042	
Au	-7.137042	7.136956	-5.097842	
Au	-5.097842	5.097859	-5.097842	
Au	-5.097842	7.136956	-7.137042	
Au	-3.058742	5.097859	-7.137042	
Au	-3.058742	7.136956	-5.097842	
Au	-1.019542	5.097859	-5.097842	
Au	-1.019542	7.136956	-7.137042	
Au	1.019559	5.097859	-7.137042	
Au	1.019559	7.136956	-5.097842	
Au	3.058759	5.097859	-5.097842	
Au	3.058759	7.136956	-7.137042	
Au	5.097859	5.097859	-7.137042	
Au	5.097859	7.136956	-5.097842	
Au	7.136956	5.097859	-5.097842	
Au	-5.097842	9.176160	-5.097842	
Au	-1.019542	9.176160	-5.097842	
Au	1.019559	9.176160	-7.137042	
Au	3.058759	9.176160	-5.097842	
Au	-7.137042	-9.176143	-1.019542	
Au	-5.097842	-9.176143	-3.058742	
Au	-3.058742	-9.176143	-1.019542	
Au	-1.019542	-11.215342	-1.019542	
Au	-1.019542	-9.176143	-3.058742	
Au	1.019559	-11.215342	-3.058742	
Au	1.019559	-9.176143	-1.019542	
Au	3.058759	-11.215342	-1.019542	
Au	3.058759	-9.176143	-3.058742	
Au	5.097859	-9.176143	-1.019542	
Au	-9.176143	-7.137042	-1.019542	
Au	-9.176143	-5.097842	-3.058742	
Au	-7.137042	-7.137042	-3.058742	
Au	-7.137042	-5.097842	-1.019542	
Au	-5.097842	-7.137042	-1.019542	
Au	-5.097842	-5.097842	-3.058742	
Au	-3.058742	-7.137042	-3.058742	
Au	-3.058742	-5.097842	-1.019542	
Au	-1.019542	-7.137042	-1.019542	
Au	-1.019542	-5.097842	-3.058742	
Au	1.019559	-7.137042	-3.058742	
Au	1.019559	-5.097842	-1.019542	
Au	3.058759	-7.137042	-1.019542	
Au	3.058759	-5.097842	-3.058742	
Au	5.097859	-7.137042	-3.058742	
Au	5.097859	-5.097842	-1.019542	
Au	7.136956	-7.137042	-1.019542	
Au	7.136956	-5.097842	-3.058742	
Au	9.176160	-5.097842	-1.019542	
Au	-11.215342	-1.019542	-1.019542	
Au	-9.176143	-3.058742	-1.019542	
Au	-9.176143	-1.019542	-3.058742	
Au	-7.137042	-3.058742	-3.058742	
Au	-7.137042	-1.019542	-1.019542	
Au	-5.097842	-3.058742	-1.019542	
Au	-5.097842	-1.019542	-3.058742	
Au	-3.058742	-3.058742	-3.058742	
Au	-3.058742	-1.019542	-1.019542	
Au	-1.019542	-3.058742	-1.019542	
Au	-1.019542	-1.019542	-3.058742	
Au	1.019559	-3.058742	-3.058742	
Au	1.019559	-1.019542	-1.019542	
Au	3.058759	-3.058742	-1.019542	
Au	3.058759	-1.019542	-3.058742	
Au	5.097859	-3.058742	-3.058742	
Au	5.097859	-1.019542	-1.019542	
Au	7.136956	-3.058742	-1.019542	
Au	7.136956	-1.019542	-3.058742	
Au	9.176160	-3.058742	-3.058742	
Au	9.176160	-1.019542	-1.019542	
Au	11.215360	-3.058742	-1.019542	
Au	11.215360	-1.019542	-3.058742	
Au	-11.215342	1.019559	-3.058742	
Au	-11.215342	3.058759	-1.019542	
Au	-9.176143	1.019559	-1.019542	
Au	-9.176143	3.058759	-3.058742	
Au	-7.137042	1.019559	-3.058742	
Au	-7.137042	3.058759	-1.019542	
Au	-5.097842	1.019559	-1.019542	
Au	-5.097842	3.058759	-3.058742	
Au	-3.058742	1.019559	-3.058742	
Au	-3.058742	3.058759	-1.019542	
Au	-1.019542	1.019559	-1.019542	
Au	-1.019542	3.058759	-3.058742	
Au	1.019559	1.019559	-3.058742	
Au	1.019559	3.058759	-1.019542	
Au	3.058759	1.019559	-1.019542	
Au	3.058759	3.058759	-3.058742	
Au	5.097859	1.019559	-3.058742	
Au	5.097859	3.058759	-1.019542	
Au	7.136956	1.019559	-1.019542	
Au	7.136956	3.058759	-3.058742	
Au	9.176160	1.019559	-3.058742	
Au	9.176160	3.058759	-1.019542	
Au	11.215360	1.019559	-1.019542	
Au	-9.176143	5.097859	-1.019542	
Au	-7.137042	5.097859	-3.058742	
Au	-7.137042	7.136956	-1.019542	
Au	-5.097842	5.097859	-1.019542	
Au	-5.097842	7.136956	-3.058742	
Au	-3.058742	5.097859	-3.058742	
Au	-3.058742	7.136956	-1.019542	
Au	-1.019542	5.097859	-1.019542	
Au	-1.019542	7.136956	-3.058742	
Au	1.019559	5.097859	-3.058742	
Au	1.019559	7.136956	-1.019542	
Au	3.058759	5.097859	-1.019542	
Au	3.058759	7.136956	-3.058742	
Au	5.097859	5.097859	-3.058742	
Au	5.097859	7.136956	-1.019542	
Au	7.136956	5.097859	-1.019542	
Au	7.136956	7.136956	-3.058742	
Au	9.176160	5.097859	-3.058742	
Au	9.176160	7.136956	-1.019542	
Au	-5.097842	9.176160	-1.019542	
Au	-3.058742	9.176160	-3.058742	
Au	-3.058742	11.215360	-1.019542	
Au	-1.019542	9.176160	-1.019542	
Au	-1.019542	11.215360	-3.058742	
Au	1.019559	9.176160	-3.058742	
Au	1.019559	11.215360	-1.019542	
Au	3.058759	9.176160	-1.019542	
Au	5.097859	9.176160	-3.058742	
Au	7.136956	9.176160	-1.019542	
Au	-5.097842	-9.176143	1.019559	
Au	-3.058742	-11.215342	1.019559	
Au	-3.058742	-9.176143	3.058759	
Au	-1.019542	-11.215342	3.058759	
Au	-1.019542	-9.176143	1.019559	
Au	1.019559	-11.215342	1.019559	
Au	1.019559	-9.176143	3.058759	
Au	3.058759	-9.176143	1.019559	
Au	5.097859	-9.176143	3.058759	
Au	7.136956	-9.176143	1.019559	
Au	-9.176143	-5.097842	1.019559	
Au	-7.137042	-7.137042	1.019559	
Au	-7.137042	-5.097842	3.058759	
Au	-5.097842	-7.137042	3.058759	
Au	-5.097842	-5.097842	1.019559	
Au	-3.058742	-7.137042	1.019559	
Au	-3.058742	-5.097842	3.058759	
Au	-1.019542	-7.137042	3.058759	
Au	-1.019542	-5.097842	1.019559	
Au	1.019559	-7.137042	1.019559	
Au	1.019559	-5.097842	3.058759	
Au	3.058759	-7.137042	3.058759	
Au	3.058759	-5.097842	1.019559	
Au	5.097859	-7.137042	1.019559	
Au	5.097859	-5.097842	3.058759	
Au	7.136956	-7.137042	3.058759	
Au	7.136956	-5.097842	1.019559	
Au	9.176160	-7.137042	1.019559	
Au	9.176160	-5.097842	3.058759	
Au	-11.215342	-3.058742	1.019559	
Au	-11.215342	-1.019542	3.058759	
Au	-9.176143	-3.058742	3.058759	
Au	-9.176143	-1.019542	1.019559	
Au	-7.137042	-3.058742	1.019559	
Au	-7.137042	-1.019542	3.058759	
Au	-5.097842	-3.058742	3.058759	
Au	-5.097842	-1.019542	1.019559	
Au	-3.058742	-3.058742	1.019559	
Au	-3.058742	-1.019542	3.058759	
Au	-1.019542	-3.058742	3.058759	
Au	-1.019542	-1.019542	1.019559	
Au	1.019559	-3.058742	1.019559	
Au	1.019559	-1.019542	3.058759	
Au	3.058759	-3.058742	3.058759	
Au	3.058759	-1.019542	1.019559	
Au	5.097859	-3.058742	1.019559	
Au	5.097859	-1.019542	3.058759	
Au	7.136956	-3.058742	3.058759	
Au	7.136956	-1.019542	1.019559	
Au	9.176160	-3.058742	1.019559	
Au	9.176160	-1.019542	3.058759	
Au	11.215360	-1.019542	1.019559	
Au	-11.215342	1.019559	1.019559	
Au	-9.176143	1.019559	3.058759	
Au	-9.176143	3.058759	1.019559	
Au	-7.137042	1.019559	1.019559	
Au	-7.137042	3.058759	3.058759	
Au	-5.097842	1.019559	3.058759	
Au	-5.097842	3.058759	1.019559	
Au	-3.058742	1.019559	1.019559	
Au	-3.058742	3.058759	3.058759	
Au	-1.019542	1.019559	3.058759	
Au	-1.019542	3.058759	1.019559	
Au	1.019559	1.019559	1.019559	
Au	1.019559	3.058759	3.058759	
Au	3.058759	1.019559	3.058759	
Au	3.058759	3.058759	1.019559	
Au	5.097859	1.019559	1.019559	
Au	5.097859	3.058759	3.058759	
Au	7.136956	1.019559	3.058759	
Au	7.136956	3.058759	1.019559	
Au	9.176160	1.019559	1.019559	
Au	9.176160	3.058759	3.058759	
Au	11.215360	1.019559	3.058759	
Au	11.215360	3.058759	1.019559	
Au	-9.176143	5.097859	3.058759	
Au	-9.176143	7.136956	1.019559	
Au	-7.137042	5.097859	1.019559	
Au	-7.137042	7.136956	3.058759	
Au	-5.097842	5.097859	3.058759	
Au	-5.097842	7.136956	1.019559	
Au	-3.058742	5.097859	1.019559	
Au	-3.058742	7.136956	3.058759	
Au	-1.019542	5.097859	3.058759	
Au	-1.019542	7.136956	1.019559	
Au	1.019559	5.097859	1.019559	
Au	1.019559	7.136956	3.058759	
Au	3.058759	5.097859	3.058759	
Au	3.058759	7.136956	1.019559	
Au	5.097859	5.097859	1.019559	
Au	5.097859	7.136956	3.058759	
Au	7.136956	5.097859	3.058759	
Au	7.136956	7.136956	1.019559	
Au	9.176160	5.097859	1.019559	
Au	-7.137042	9.176160	1.019559	
Au	-5.097842	9.176160	3.058759	
Au	-3.058742	9.176160	1.019559	
Au	-1.019542	9.176160	3.058759	
Au	-1.019542	11.215360	1.019559	
Au	1.019559	9.176160	1.019559	
Au	1.019559	11.215360	3.058759	
Au	3.058759	9.176160	3.058759	
Au	3.058759	11.215360	1.019559	
Au	5.097859	9.176160	1.019559	
Au	-5.097842	-9.176143	5.097859	
Au	-1.019542	-9.176143	5.097859	
Au	1.019559	-9.176143	7.136956	
Au	3.058759	-9.176143	5.097859	
Au	-9.176143	-5.097842	5.097859	
Au	-7.137042	-7.137042	5.097859	
Au	-7.137042	-5.097842	7.136956	
Au	-5.097842	-7.137042	7.136956	
Au	-5.097842	-5.097842	5.097859	
Au	-3.058742	-7.137042	5.097859	
Au	-3.058742	-5.097842	7.136956	
Au	-1.019542	-7.137042	7.136956	
Au	-1.019542	-5.097842	5.097859	
Au	1.019559	-7.137042	5.097859	
Au	1.019559	-5.097842	7.136956	
Au	3.058759	-7.137042	7.136956	
Au	3.058759	-5.097842	5.097859	
Au	5.097859	-7.137042	5.097859	
Au	5.097859	-5.097842	7.136956	
Au	7.136956	-5.097842	5.097859	
Au	-9.176143	-1.019542	5.097859	
Au	-7.137042	-3.058742	5.097859	
Au	-7.137042	-1.019542	7.136956	
Au	-5.097842	-3.058742	7.136956	
Au	-5.097842	-1.019542	5.097859	
Au	-3.058742	-3.058742	5.097859	
Au	-3.058742	-1.019542	7.136956	
Au	-1.019542	-3.058742	7.136956	
Au	-1.019542	-1.019542	5.097859	
Au	1.019559	-3.058742	5.097859	
Au	1.019559	-1.019542	7.136956	
Au	3.058759	-3.058742	7.136956	
Au	3.058759	-1.019542	5.097859	
Au	5.097859	-3.058742	5.097859	
Au	5.097859	-1.019542	7.136956	
Au	7.136956	-3.058742	7.136956	
Au	7.136956	-1.019542	5.097859	
Au	9.176160	-3.058742	5.097859	
Au	9.176160	-1.019542	7.136956	
Au	-9.176143	1.019559	7.136956	
Au	-9.176143	3.058759	5.097859	
Au	-7.137042	1.019559	5.097859	
Au	-7.137042	3.058759	7.136956	
Au	-5.097842	1.019559	7.136956	
Au	-5.097842	3.058759	5.097859	
Au	-3.058742	1.019559	5.097859	
Au	-3.058742	3.058759	7.136956	
Au	-1.019542	1.019559	7.136956	
Au	-1.019542	3.058759	5.097859	
Au	1.019559	1.019559	5.097859	
Au	1.019559	3.058759	7.136956	
Au	3.058759	1.019559	7.136956	
Au	3.058759	3.058759	5.097859	
Au	5.097859	1.019559	5.097859	
Au	5.097859	3.058759	7.136956	
Au	7.136956	1.019559	7.136956	
Au	7.136956	3.058759	5.097859	
Au	9.176160	1.019559	5.097859	
Au	-7.137042	5.097859	5.097859	
Au	-5.097842	5.097859	7.136956	
Au	-5.097842	7.136956	5.097859	
Au	-3.058742	5.097859	5.097859	
Au	-3.058742	7.136956	7.136956	
Au	-1.019542	5.097859	7.136956	
Au	-1.019542	7.136956	5.097859	
Au	1.019559	5.097859	5.097859	
Au	1.019559	7.136956	7.136956	
Au	3.058759	5.097859	7.136956	
Au	3.058759	7.136956	5.097859	
Au	5.097859	5.097859	5.097859	
Au	5.097859	7.136956	7.136956	
Au	7.136956	5.097859	7.136956	
Au	7.136956	7.136956	5.097859	
Au	9.176160	5.097859	5.097859	
Au	-3.058742	9.176160	5.097859	
Au	-1.019542	9.176160	7.136956	
Au	1.019559	9.176160	5.097859	
Au	5.097859	9.176160	5.097859	
Au	-5.097842	-5.097842	9.176160	
Au	-1.019542	-5.097842	9.176160	
Au	1.019559	-7.137042	9.176160	
Au	3.058759	-5.097842	9.176160	
Au	-5.097842	-1.019542	9.176160	
Au	-3.058742	-3.058742	9.176160	
Au	-3.058742	-1.019542	11.215360	
Au	-1.019542	-3.058742	11.215360	
Au	-1.019542	-1.019542	9.176160	
Au	1.019559	-3.058742	9.176160	
Au	1.019559	-1.019542	11.215360	
Au	3.058759	-1.019542	9.176160	
Au	5.097859	-3.058742	9.176160	
Au	7.136956	-1.019542	9.176160	
Au	-7.137042	1.019559	9.176160	
Au	-5.097842	3.058759	9.176160	
Au	-3.058742	1.019559	9.176160	
Au	-1.019542	1.019559	11.215360	
Au	-1.019542	3.058759	9.176160	
Au	1.019559	1.019559	9.176160	
Au	1.019559	3.058759	11.215360	
Au	3.058759	1.019559	11.215360	
Au	3.058759	3.058759	9.176160	
Au	5.097859	1.019559	9.176160	
Au	-3.058742	5.097859	9.176160	
Au	-1.019542	7.136956	9.176160	
Au	1.019559	5.097859	9.176160	
Au	5.097859	5.097859	9.176160	
